Version 4
SHEET 1 1100 1012
WIRE 320 -128 224 -128
WIRE 368 -128 320 -128
WIRE 432 -128 368 -128
WIRE 720 -112 624 -112
WIRE 720 -96 720 -112
WIRE 720 -96 704 -96
WIRE 704 -80 704 -96
WIRE 432 -16 432 -48
WIRE 624 -16 624 -112
WIRE 624 -16 432 -16
WIRE 368 16 368 -128
WIRE 592 16 368 16
WIRE 592 32 592 16
WIRE 672 32 592 32
WIRE 80 64 -16 64
WIRE 224 64 224 -128
WIRE 432 64 224 64
WIRE 592 80 592 32
WIRE -16 96 -16 64
WIRE -16 96 -224 96
WIRE -224 128 -224 96
WIRE 80 128 80 64
WIRE 672 128 672 32
WIRE 672 128 592 128
WIRE 544 160 464 160
WIRE 400 192 400 144
WIRE 400 192 352 192
WIRE 464 192 464 160
WIRE 464 192 400 192
WIRE 592 208 592 176
WIRE 736 208 592 208
WIRE 880 208 736 208
WIRE 928 208 880 208
WIRE 880 240 880 208
WIRE 592 256 592 208
WIRE 736 256 736 208
WIRE -224 272 -224 208
WIRE 432 288 432 64
WIRE 432 288 224 288
WIRE 880 320 880 304
WIRE 80 384 80 224
WIRE 592 384 592 336
WIRE 592 384 80 384
WIRE 736 384 736 336
WIRE 688 416 400 416
WIRE 880 432 880 400
WIRE 880 432 736 432
WIRE 960 432 880 432
WIRE 592 448 592 384
WIRE 400 464 400 416
WIRE 688 464 688 416
WIRE 848 480 736 480
WIRE 848 544 848 480
WIRE 960 544 960 432
WIRE 960 544 848 544
WIRE 400 576 400 544
WIRE 592 608 592 528
WIRE 704 608 592 608
WIRE 848 608 848 544
WIRE 848 608 704 608
WIRE 704 640 704 608
FLAG 704 -80 0
FLAG 704 640 0
FLAG 928 208 Vreg
FLAG -224 272 0
FLAG 400 576 0
FLAG 320 -128 Vin
FLAG 400 144 Vout
SYMBOL Final_opamp 224 208 M180
SYMATTR InstName X1
SYMBOL pmos4 544 80 R0
SYMATTR InstName M1
SYMATTR Value PMOS1
SYMBOL voltage 432 -144 R0
WINDOW 123 24 44 Left 2
WINDOW 39 0 0 Left 0
SYMATTR InstName V1
SYMATTR Value 3.3
SYMBOL res 576 240 R0
SYMATTR InstName R1
SYMATTR Value 50k
SYMBOL res 576 432 R0
SYMATTR InstName R2
SYMATTR Value 50k
SYMBOL voltage -224 112 R0
WINDOW 123 0 0 Left 0
WINDOW 39 0 0 Left 0
SYMATTR InstName V2
SYMATTR Value 1.25
SYMBOL nmos4 688 384 R0
SYMATTR InstName M2
SYMBOL voltage 400 448 R0
WINDOW 123 0 0 Left 0
WINDOW 39 0 0 Left 0
SYMATTR InstName V3
SYMATTR Value PULSE(0 3 0 0 0 0.5m 1m)
SYMBOL res 720 240 R0
SYMATTR InstName R3
SYMATTR Value 31.25
SYMBOL cap 864 240 R0
SYMATTR InstName C1
SYMATTR Value 1µ
SYMBOL res 864 304 R0
SYMATTR InstName Resr
SYMATTR Value 0.6
TEXT -160 664 Left 2 !;.ac dec 10 1 100000
TEXT 176 760 Left 2 !.model pmos1 pmos(vto=-0.7V lambda=0.05 kp=50u W=51200um L=1um)
TEXT -256 784 Left 2 !;dc V1 0 5 1
TEXT -258 804 Left 2 !.tran 0 100ms 0 0.5ms
